.model NXP_1PS10SB82 D(Is=1.042E-8 Rs=5.567 N=1.029 Cjo=9.779E-13 M=0.194 mfg=NXP type=schottky)
