Version 4
SHEET 1 1000 680
WIRE -128 -272 -176 -272
WIRE 528 -272 -48 -272
WIRE -736 -240 -736 -256
WIRE 256 -224 16 -224
WIRE 368 -224 336 -224
WIRE -736 -208 -736 -240
WIRE -256 -144 -288 -144
WIRE -176 -144 -176 -272
WIRE -176 -144 -256 -144
WIRE -80 -144 -176 -144
WIRE 16 -144 16 -224
WIRE 16 -144 0 -144
WIRE 64 -144 16 -144
WIRE 112 -144 64 -144
WIRE 224 -144 176 -144
WIRE -528 -128 -528 -144
WIRE 144 -48 144 -64
WIRE 144 -32 144 -48
WIRE -288 -16 -368 -16
WIRE -176 -16 -288 -16
WIRE -80 -16 -176 -16
WIRE 64 -16 64 -144
WIRE 64 -16 0 -16
WIRE 112 -16 64 -16
WIRE -880 0 -880 -32
WIRE 224 0 224 -144
WIRE 224 0 176 0
WIRE 272 0 224 0
WIRE 368 0 368 -224
WIRE 368 0 336 0
WIRE 416 0 368 0
WIRE 528 0 528 -272
WIRE 528 0 496 0
WIRE 112 16 80 16
WIRE -880 32 -880 0
WIRE -368 48 -368 -16
WIRE 80 48 80 16
WIRE 144 48 144 32
WIRE 144 64 144 48
WIRE 800 80 672 80
WIRE 912 80 880 80
WIRE -176 112 -176 -16
WIRE -80 112 -176 112
WIRE 528 112 528 0
WIRE 528 112 0 112
WIRE 752 160 752 144
WIRE 272 176 64 176
WIRE 384 176 352 176
WIRE 752 192 752 160
WIRE 528 208 528 112
WIRE 672 208 672 80
WIRE 672 208 528 208
WIRE 720 208 672 208
WIRE 912 224 912 80
WIRE 912 224 784 224
WIRE 960 224 912 224
WIRE 64 240 64 176
WIRE 112 240 64 240
WIRE 224 240 176 240
WIRE 720 240 688 240
WIRE 688 256 688 240
WIRE 752 288 752 256
WIRE 752 304 752 288
WIRE 144 352 144 320
WIRE 144 368 144 352
WIRE -176 384 -176 112
WIRE -80 384 -176 384
WIRE 64 384 64 240
WIRE 64 384 0 384
WIRE 112 384 64 384
WIRE 224 400 224 240
WIRE 224 400 176 400
WIRE 272 400 224 400
WIRE 384 400 384 176
WIRE 384 400 336 400
WIRE 416 400 384 400
WIRE 528 400 528 208
WIRE 528 400 496 400
WIRE 112 416 64 416
WIRE 64 448 64 416
WIRE 144 448 144 432
WIRE 144 464 144 448
WIRE -176 560 -176 384
WIRE 144 560 -176 560
WIRE 528 560 528 400
WIRE 528 560 224 560
FLAG -736 -128 0
FLAG -736 -240 Vcc
FLAG 144 -48 Vcc
FLAG 144 352 Vcc
FLAG 752 160 Vcc
FLAG 80 48 0
FLAG 64 448 0
FLAG 688 256 0
FLAG -288 -144 HF
FLAG -288 -16 LO
FLAG 960 224 IF
FLAG -368 128 0
FLAG -528 -48 0
FLAG -880 112 0
FLAG -880 0 Vdd
FLAG 144 48 Vdd
FLAG 144 448 Vdd
FLAG 752 288 Vdd
FLAG -256 -144 0
SYMBOL diode 336 -16 R90
WINDOW 0 0 32 VBottom 2
WINDOW 3 32 32 VTop 2
SYMATTR InstName D1
SYMATTR Value 1N914
SYMBOL diode 272 416 R270
WINDOW 0 32 32 VTop 2
WINDOW 3 0 32 VBottom 2
SYMATTR InstName D2
SYMATTR Value 1N914
SYMBOL diode 112 256 R270
WINDOW 0 32 32 VTop 2
WINDOW 3 0 32 VBottom 2
SYMATTR InstName D3
SYMATTR Value 1N914
SYMBOL diode 176 -160 R90
WINDOW 0 0 32 VBottom 2
WINDOW 3 32 32 VTop 2
SYMATTR InstName D4
SYMATTR Value 1N914
SYMBOL voltage -736 -224 R0
WINDOW 123 0 0 Left 2
WINDOW 39 0 0 Left 2
SYMATTR InstName V1
SYMATTR Value 5V
SYMBOL res 16 -32 R90
WINDOW 0 0 56 VBottom 2
WINDOW 3 32 56 VTop 2
SYMATTR InstName R1
SYMATTR Value 1k
SYMBOL res 16 -160 R90
WINDOW 0 0 56 VBottom 2
WINDOW 3 32 56 VTop 2
SYMATTR InstName R2
SYMATTR Value 1k
SYMBOL res 16 368 R90
WINDOW 0 0 56 VBottom 2
WINDOW 3 32 56 VTop 2
SYMATTR InstName R3
SYMATTR Value 1k
SYMBOL res 368 160 R90
WINDOW 0 0 56 VBottom 2
WINDOW 3 32 56 VTop 2
SYMATTR InstName R4
SYMATTR Value 1k
SYMBOL res 352 -240 R90
WINDOW 0 0 56 VBottom 2
WINDOW 3 32 56 VTop 2
SYMATTR InstName R5
SYMATTR Value 1k
SYMBOL res 512 -16 R90
WINDOW 0 0 56 VBottom 2
WINDOW 3 32 56 VTop 2
SYMATTR InstName R6
SYMATTR Value 1k
SYMBOL res 512 384 R90
WINDOW 0 0 56 VBottom 2
WINDOW 3 32 56 VTop 2
SYMATTR InstName R7
SYMATTR Value 1k
SYMBOL res 896 64 R90
WINDOW 0 0 56 VBottom 2
WINDOW 3 32 56 VTop 2
SYMATTR InstName R8
SYMATTR Value 2k
SYMBOL res -32 -288 R90
WINDOW 0 0 56 VBottom 2
WINDOW 3 32 56 VTop 2
SYMATTR InstName R9
SYMATTR Value 2k
SYMBOL res 16 96 R90
WINDOW 0 0 56 VBottom 2
WINDOW 3 32 56 VTop 2
SYMATTR InstName R10
SYMATTR Value 2k
SYMBOL voltage -528 -144 R0
WINDOW 3 -67 -26 Left 2
WINDOW 123 0 0 Left 2
WINDOW 39 0 0 Left 2
SYMATTR InstName V2
SYMATTR Value SINE(0 1 42000)
SYMBOL voltage -368 32 R0
WINDOW 3 -384 133 Left 2
WINDOW 123 0 0 Left 2
WINDOW 39 0 0 Left 2
SYMATTR InstName V3
SYMATTR Value PULSE(-2.0 2.0 0 1e-12 1e-12 10e-6 20e-6 500)
SYMBOL res 240 544 R90
WINDOW 0 0 56 VBottom 2
WINDOW 3 32 56 VTop 2
SYMATTR InstName R11
SYMATTR Value 2k
SYMBOL voltage -880 16 R0
WINDOW 123 0 0 Left 2
WINDOW 39 0 0 Left 2
SYMATTR InstName V4
SYMATTR Value -5V
SYMBOL Opamps\\LTC6248 144 0 R0
SYMATTR InstName U4
SYMBOL Opamps\\LTC6248 144 400 R0
SYMATTR InstName U5
SYMBOL Opamps\\LTC6248 752 224 R0
SYMATTR InstName U6
TEXT -771 -57 Left 2 !.tran 0.005
