Version 4
SHEET 1 1280 752
WIRE -128 -352 -176 -352
WIRE 528 -352 -48 -352
WIRE 256 -272 16 -272
WIRE 368 -272 336 -272
WIRE -736 -240 -736 -256
WIRE -736 -208 -736 -240
WIRE -256 -144 -288 -144
WIRE -176 -144 -176 -352
WIRE -176 -144 -256 -144
WIRE -80 -144 -176 -144
WIRE 16 -144 16 -272
WIRE 16 -144 0 -144
WIRE 64 -144 16 -144
WIRE 112 -144 64 -144
WIRE 224 -144 176 -144
WIRE -528 -128 -528 -144
WIRE 144 -48 144 -64
WIRE 144 -32 144 -48
WIRE -288 -16 -368 -16
WIRE -176 -16 -288 -16
WIRE -80 -16 -176 -16
WIRE 64 -16 64 -144
WIRE 64 -16 0 -16
WIRE 112 -16 64 -16
WIRE -880 0 -880 -32
WIRE 224 0 224 -144
WIRE 224 0 176 0
WIRE 272 0 224 0
WIRE 368 0 368 -272
WIRE 368 0 336 0
WIRE 416 0 368 0
WIRE 528 0 528 -352
WIRE 528 0 496 0
WIRE 112 16 80 16
WIRE -880 32 -880 0
WIRE -368 48 -368 -16
WIRE 80 48 80 16
WIRE 144 48 144 32
WIRE 144 64 144 48
WIRE 800 80 672 80
WIRE 912 80 880 80
WIRE -176 112 -176 -16
WIRE -80 112 -176 112
WIRE 528 112 528 0
WIRE 528 112 0 112
WIRE 752 160 752 144
WIRE 752 192 752 160
WIRE 528 208 528 112
WIRE 672 208 672 80
WIRE 672 208 528 208
WIRE 720 208 672 208
WIRE 912 224 912 80
WIRE 912 224 784 224
WIRE 960 224 912 224
WIRE 272 240 64 240
WIRE 384 240 352 240
WIRE 720 240 688 240
WIRE 688 256 688 240
WIRE 752 288 752 256
WIRE 752 304 752 288
WIRE 64 384 64 240
WIRE 112 384 64 384
WIRE 224 384 176 384
WIRE 144 496 144 464
WIRE 144 512 144 496
WIRE -176 528 -176 112
WIRE -80 528 -176 528
WIRE 64 528 64 384
WIRE 64 528 0 528
WIRE 112 528 64 528
WIRE 224 544 224 384
WIRE 224 544 176 544
WIRE 272 544 224 544
WIRE 384 544 384 240
WIRE 384 544 336 544
WIRE 416 544 384 544
WIRE 528 544 528 208
WIRE 528 544 496 544
WIRE 112 560 64 560
WIRE 64 592 64 560
WIRE 144 624 144 576
WIRE 144 640 144 624
WIRE -176 704 -176 528
WIRE 144 704 -176 704
WIRE 528 704 528 544
WIRE 528 704 224 704
FLAG -736 -128 0
FLAG -736 -240 Vcc
FLAG 144 -48 Vcc
FLAG 144 496 Vcc
FLAG 752 160 Vcc
FLAG 80 48 0
FLAG 64 592 0
FLAG 688 256 0
FLAG -288 -144 HF
FLAG -288 -16 LO
FLAG 960 224 IF
FLAG -368 128 0
FLAG -528 -48 0
FLAG -880 112 0
FLAG -880 0 Vdd
FLAG 144 48 Vdd
FLAG 144 624 Vdd
FLAG 752 288 Vdd
FLAG -256 -144 0
SYMBOL schottky 336 -16 R90
WINDOW 0 0 32 VBottom 0
WINDOW 3 32 32 VTop 0
SYMATTR InstName D1
SYMATTR Value BAT54
SYMATTR Description Diode
SYMATTR Type diode
SYMBOL schottky 272 560 R270
WINDOW 0 32 32 VTop 0
WINDOW 3 0 32 VBottom 0
SYMATTR InstName D2
SYMATTR Value BAT54
SYMATTR Description Diode
SYMATTR Type diode
SYMBOL schottky 112 400 R270
WINDOW 0 32 32 VTop 0
WINDOW 3 0 32 VBottom 0
SYMATTR InstName D3
SYMATTR Value BAT54
SYMATTR Description Diode
SYMATTR Type diode
SYMBOL schottky 176 -160 R90
WINDOW 0 0 32 VBottom 0
WINDOW 3 32 32 VTop 0
SYMATTR InstName D4
SYMATTR Value BAT54
SYMATTR Description Diode
SYMATTR Type diode
SYMBOL voltage -736 -224 R0
WINDOW 123 0 0 Left 0
WINDOW 39 0 0 Left 0
SYMATTR InstName V1
SYMATTR Value 5V
SYMBOL res 16 -32 R90
WINDOW 0 0 56 VBottom 0
WINDOW 3 32 56 VTop 0
SYMATTR InstName R1
SYMATTR Value 1k
SYMBOL res 16 -160 R90
WINDOW 0 0 56 VBottom 0
WINDOW 3 32 56 VTop 0
SYMATTR InstName R2
SYMATTR Value 10k
SYMBOL res 16 512 R90
WINDOW 0 0 56 VBottom 0
WINDOW 3 32 56 VTop 0
SYMATTR InstName R3
SYMATTR Value 10k
SYMBOL res 368 224 R90
WINDOW 0 0 56 VBottom 0
WINDOW 3 32 56 VTop 0
SYMATTR InstName R4
SYMATTR Value 10k
SYMBOL res 352 -288 R90
WINDOW 0 0 56 VBottom 0
WINDOW 3 32 56 VTop 0
SYMATTR InstName R5
SYMATTR Value 10k
SYMBOL res 512 -16 R90
WINDOW 0 0 56 VBottom 0
WINDOW 3 32 56 VTop 0
SYMATTR InstName R6
SYMATTR Value 10k
SYMBOL res 512 528 R90
WINDOW 0 0 56 VBottom 0
WINDOW 3 32 56 VTop 0
SYMATTR InstName R7
SYMATTR Value 10k
SYMBOL res 896 64 R90
WINDOW 0 0 56 VBottom 0
WINDOW 3 32 56 VTop 0
SYMATTR InstName R8
SYMATTR Value 20k
SYMBOL res -32 -368 R90
WINDOW 0 0 56 VBottom 0
WINDOW 3 32 56 VTop 0
SYMATTR InstName R9
SYMATTR Value 20k
SYMBOL res 16 96 R90
WINDOW 0 0 56 VBottom 0
WINDOW 3 32 56 VTop 0
SYMATTR InstName R10
SYMATTR Value 20k
SYMBOL voltage -528 -144 R0
WINDOW 3 -67 -26 Left 0
WINDOW 123 0 0 Left 0
WINDOW 39 0 0 Left 0
SYMATTR Value SINE(0 1 42000)
SYMATTR InstName V2
SYMBOL voltage -368 32 R0
WINDOW 3 -384 133 Left 0
WINDOW 123 0 0 Left 0
WINDOW 39 0 0 Left 0
SYMATTR Value PULSE(-2.0 2.0 0 1e-12 1e-12 10e-6 20e-6 500)
SYMATTR InstName V3
SYMBOL res 240 688 R90
WINDOW 0 0 56 VBottom 0
WINDOW 3 32 56 VTop 0
SYMATTR InstName R11
SYMATTR Value 20k
SYMBOL voltage -880 16 R0
WINDOW 123 0 0 Left 0
WINDOW 39 0 0 Left 0
SYMATTR InstName V4
SYMATTR Value -5V
SYMBOL Opamps\\LT1724 144 -64 R0
SYMATTR InstName U1
SYMBOL Opamps\\LT1724 144 480 R0
SYMATTR InstName U2
SYMBOL Opamps\\LT1724 752 160 R0
SYMATTR InstName U3
TEXT -768 -56 Left 0 !.tran 0.005
